** THIS INPUT FILE HAS BEEN GENERATED BY JOAQUIN GARCIA-SUAREZ
** (CALTECH, 2020), IN THE CONTEXT OF THE RESEARCH PRESENTED IN
** THE PAPER "Exact dynamic response of smooth rigid retaining
** walls resting on bedrock".  
** IT PROVIDES AN ILLUSTRATIVE EXAMPLE OF THE SIMULATIONS RUN IN 
** ORDER TO GENERATE THE TRANSFER FUNCTION SHOWN IN THE
** AFOREMENTIONED PAPER.
**
**
**
*Heading
** Job name: abaqus_input_example Model name: Model-1
** Generated by: Abaqus/CAE 6.14-2
*Preprint, echo=NO, model=NO, history=NO, contact=NO
**
** PARTS
**
*Part, name=Part-1
*Node
      1,           0.,   18.3400002
      2,  0.479999989,          18.
      3,           1.,   18.1200008
      4,           0.,   18.3199997
      5,           1.,   19.4799995
      6,           0.,   19.9799995
      7,  0.400000006,          20.
      8,           0.,   18.2999992
      9,           0.,   19.9599991
     10,           0.,   19.2999992
     11,           0.,   18.2800007
     12,           0.,   19.9400005
     13,           1.,   19.5200005
     14,           0.,   18.2600002
     15,  0.159999996,          20.
     16,           1.,   19.3400002
     17,           1.,   19.5400009
     18,           0.,   18.2399998
     19,           1.,   19.4400005
     20,           0.,   19.8999996
** ... 29704 like lines cut
*Element, type=CPEG6
  1, 5882, 4780, 4789, 5995, 5996, 5997
  2, 4978, 5021, 5047, 5998, 5999, 6000
  3, 3892, 4051,  831, 6001, 6002, 6003
  4, 3173, 2967, 3122, 6004, 6005, 6006
  5, 4460, 4375, 4321, 6007, 6008, 6009
  6, 3425, 5601, 5576, 6010, 6011, 6012
  7, 5402, 2743, 2857, 6013, 6014, 6015
  8, 5144, 3030, 3097, 6016, 6017, 6018
  9, 2788, 2505, 2848, 6019, 6020, 6021
 10, 2728, 2629, 2471, 6022, 6023, 6024
 11, 4178, 4057, 4112, 6025, 6026, 6027
 12, 3590, 3412, 3463, 6028, 6029, 6030
 13, 3224, 2897, 2972, 6031, 6032, 6033
 14, 3875,  452, 3847, 6034, 6035, 6036
 15, 4398, 4407,  542, 6037, 6038, 6039
 16, 5986, 4717, 4775, 6040, 6041, 6042
 17, 2967,  805, 3122, 6043, 6044, 6005
 18, 5945, 4672, 4618, 6045, 6046, 6047
 19, 4670, 4886, 4927, 6048, 6049, 6050
 20, 2615, 2439, 1033, 6051, 6052, 6053
** ... 192 like lines cut
*Element, type=CPEG8R
 167,    51,  1661,  1418,    48,  6491,  6492,  6493,  6494
 168,  1661,    51,   274,    87,  6491,  6495,  6496,  6497
 169,  1691,   323,  1672,  1782,  6498,  6499,  6500,  6501
 170,   322,  1670,  1791,  1860,  6502,  6503,  6504,  6505
 171,   321,  1715,  1761,  1831,  6506,  6507,  6508,  6509
 172,  1878,   343,  1739,  2016,  6510,  6511,  6512,  6513
 173,  2175,   342,  2016,   319,  6514,  6515,  6516,  6517
 174,  2319,  2145,  2405,   318,  6518,  6519,  6520,  6521
 175,  2017,  1740,  1879,   340,  6522,  6523,  6524,  6525
 176,   316,  1716,  1762,  1810,  6526,  6527,  6528,  6529
 177,  1832,   338,  1902,  1762,  6530,  6531,  6532,  6533
 178,  2204,  2128,   314,  2340,  6534,  6535,  6536,  6537
 179,  2080,  1954,  1870,  5190,  6538,  6539,  6540,  6541
 180,   312,  1674,  1801,  1870,  6542,  6543,  6544,  6545
 181,   311,  1675,  1793,  1862,  6546,  6547,  6548,  6549
 182,   310,  1676,  1792,  1861,  6550,  6551,  6552,  6553
 183,   309,  1677,  1760,  1830,  6554,  6555,  6556,  6557
 184,  1874,  1805,  1735,  2012,  6558,  6559,  6560,  6561
 185,  2169,   330,  2012,   307,  6562,  6563,  6564,  6565
 186,  2325,  2142,  2413,   306,  6566,  6567,  6568,  6569
** ... 9295 like lines cut
*Node
  29725,           0.,           0.,           0.
*Nset, nset=Part-1-RefPt_, internal
29725, 
*Nset, nset=_PickedSet2, internal, generate
     1,  29724,      1
*Elset, elset=_PickedSet2, internal, generate
    1,  9527,     1
*Nset, nset=_PickedSet18, internal, generate
     1,  29724,      1
*Elset, elset=_PickedSet18, internal, generate
    1,  9527,     1
** Section: plane strain
*Solid Section, elset=_PickedSet2, material=Soil, ref node=Part-1-RefPt_
1., 
*End Part
**  
**
** ASSEMBLY
**
*Assembly, name=Assembly
**  
*Instance, name=Part-1-1, part=Part-1
*End Instance
**  
*Nset, nset="ref point", instance=Part-1-1
 29725,
*Nset, nset=v_top, instance=Part-1-1
 254,
*Nset, nset=_PickedSet23, internal, instance=Part-1-1
 29725,
*Nset, nset=_PickedSet27, internal, instance=Part-1-1
 29725,
*Nset, nset=_PickedSet30, internal, instance=Part-1-1
 29725,
*Nset, nset=_PickedSet32, internal, instance=Part-1-1
 29725,
*Nset, nset=_PickedSet44, internal, instance=Part-1-1
 22561, 22681, 22782, 22918, 23051, 24955, 24959, 24962, 24965
*Elset, elset=_PickedSet44, internal, instance=Part-1-1, generate
 7408,  7411,     1
*Nset, nset=_PickedSet45, internal, instance=Part-1-1
     2,    32,    56,    58,    61,    63,    81,    86,    91,    94,   101,   102,   103,   104,   108,   117
   118,   121,   122,   124,   126,   133,   137,   148,   156,   159,   162,   168,   169,   175,   181,   182
   188,   196,   200,   202,   211,   215,   225,   233,   238,   255,   260,   263,   270,   278,   280,   284
   288,   292,  6796,  6800,  6806,  6812,  6814,  6818,  6850,  6854,  6858,  6862,  6891, 11006, 11008, 11012
 11016, 11020, 11038, 11044, 11046, 11050, 11054, 11058, 13424, 13426, 13432, 13434, 13444, 13446, 13639, 13646
 13647, 13648, 13649, 13654, 13657, 13660, 13662, 13664, 13666, 13668, 13670, 13672, 13673, 13674, 13675, 13681
 13682, 13683, 13684, 17918, 17926, 17927, 17930, 17932, 17933, 17935, 17936, 17937, 17938, 17940, 17942, 17943
 17944, 17948, 17949, 17950, 17956, 17957, 17959, 17962, 17965, 17967, 17968, 17970, 17972, 17977, 17978, 17982
 17983, 17986, 17987, 17991, 17992, 17994, 17997, 18000, 18002, 18003, 18004, 18005, 18009, 18010, 18011, 18013
 19462, 19562, 19566, 19570, 19573, 19615, 19616, 19634, 19648, 19663, 19679, 19695, 19699, 19711, 19727, 19742
 19955, 19974, 19976, 19978, 19981, 19984, 19986, 19989, 19992, 19995, 19998, 19999, 20003, 20006, 20007, 20212
 20216, 20232, 20233, 20236, 20250, 20277, 20281, 20287, 20290, 20296, 20299, 20303, 20306, 22307, 22309, 22310
 22311, 22312, 22313, 22314, 22315, 22317, 22318, 22319, 22320, 22322, 22323, 22324, 22325, 22326, 22328, 22329
 22330, 22331, 22333, 22334, 22339, 22342, 22345, 22351, 22353, 22354, 22356, 22358, 22361, 22363, 22368, 22372
 22374, 22375, 22376, 22378, 22380, 22381, 22383, 22384, 22385, 22389, 22390, 22393, 22394, 22395, 22396, 22401
 22402, 22403, 22404, 22407, 22408, 22409, 22411, 22412, 22413, 22415, 22417, 22420, 22423, 22428, 22430, 22431
 22435, 22444, 22445, 22449, 22450, 22452, 22453, 22454, 22455, 22457, 22459, 22467, 22469, 22471, 22473, 22474
 22475, 22476, 22477, 22479, 22480, 22482, 22485, 22486, 22490, 22491, 22494, 22495, 22496, 22499, 22500, 22501
 22504, 22507, 22508, 22509, 22513, 22515, 22516, 22517, 22518, 22521, 22523, 22524, 22527, 22529, 22531, 22532
 22535, 22536, 22539, 22540, 22544, 22548, 22549, 22550, 22552, 22554, 22560, 22563, 22564, 22566, 22567, 22568
** ... 59 like lines cut
*Elset, elset=_PickedSet45, internal, instance=Part-1-1
  246,  247,  249,  250,  251,  252,  260,  261,  262,  263,  270, 1384, 1385, 1386, 1387, 1388
 1395, 1396, 1397, 1398, 1399, 1400, 2218, 2219, 2222, 2223, 2230, 2231, 2335, 2338, 2339, 2340
 2341, 2347, 2349, 2351, 2353, 2356, 2357, 2358, 2359, 2360, 2361, 2362, 2363, 2366, 2367, 2368
 2369, 5957, 5990, 5991, 5992, 5993, 6004, 6005, 6009, 6013, 6017, 6021, 6025, 6026, 6029, 6033
 6037, 6117, 6124, 6125, 6126, 6127, 6128, 6129, 6130, 6131, 6132, 6133, 6134, 6135, 6136, 6137
 6234, 6237, 6246, 6247, 6249, 6255, 6266, 6268, 6272, 6274, 6277, 6279, 6281, 6283, 7408, 7412
 7416, 7420, 7424, 7428, 7432, 7436, 7440, 7444, 7448, 7452, 7456, 7460, 7464, 7468, 7472, 7476
 7480, 7484, 7488, 7492, 7496, 7500, 7504, 7508, 7512, 7516, 7520, 7524, 7528, 7532, 7536, 7540
 7544, 7548, 7552, 7556, 7560, 7564, 7568, 7572, 7576, 7580, 7584, 7588, 7592, 7596, 7600, 7604
 7608, 7612, 7616, 7620, 7624, 7628, 7632, 7636, 7640, 7644, 7648, 7652, 7656, 7660, 7664, 7668
 7672, 7676, 7680, 7684, 7688, 7692, 7696, 7700, 7704, 7708, 7712, 7716, 7720, 7724, 7728, 7732
 7736, 7740, 7744, 7748, 7752, 7756, 7760, 7764, 7768, 7772, 7776, 7780, 7784, 7788, 7792, 7796
 7800, 7804, 7808, 7812, 7816, 7820, 7824, 7828, 7832, 7836, 7840, 7844, 7848, 7852, 7856, 7860
 7864, 7868, 7872, 7876, 7880, 7884, 7888, 7892, 7896, 7900, 7904, 7908, 7912, 7916, 7920, 7924
 7928, 7932, 7936, 7940, 7944, 7948, 7952, 7956, 7960, 7964, 7968, 7972, 7976, 7980, 7984, 7988
 7992, 7996, 8000, 8004, 8008, 8012, 8016, 8020, 8024, 8028, 8032, 8036, 8040, 8044, 8048, 8052
 8056, 8060, 8064, 8068, 8072, 8076, 8080, 8084, 8088, 8092, 8096, 8100, 8104, 8108, 8112, 8116
 8120, 8124, 8128, 8132, 8136, 8140, 8144, 8148, 8152, 8156, 8160, 8164, 8168, 8172, 8176, 8180
 8184, 8188, 8192, 8196, 8200, 8204, 8208, 8212, 8216, 8220, 8224, 8228, 8232, 8236, 8240, 8244
 8248, 8252, 8256, 8260, 8264, 8268, 8272, 8276, 8280, 8284, 8288, 8292, 8296, 8300, 8304, 8308
** ... 19 like lines cut
*Elset, elset=__PickedSurf34_S2, internal, instance=Part-1-1
  246, 6037, 6137
*Elset, elset=__PickedSurf34_S3, internal, instance=Part-1-1
  247,  250,  270, 1384, 1396, 2218, 2219, 2222, 2223, 2230, 2231, 2338, 2339, 2340, 2341, 2353
 2366, 2367, 2368, 2369, 5927, 5957, 6004, 6009, 6117, 6124, 6125, 6126, 6127, 6128, 6129, 6130
 6131, 6132, 6133, 6134, 6135, 6136, 6234, 6255, 6266, 6268, 6272, 6274, 6277, 6279, 6281, 6283
*Elset, elset=__PickedSurf34_S1, internal, instance=Part-1-1
  249,  251,  252,  260,  261,  262,  263, 1385, 1386, 1387, 1388, 1395, 1397, 1398, 1399, 1400
 2335, 2347, 2349, 2351, 2356, 2357, 2358, 2359, 2360, 2361, 2362, 2363, 5990, 5991, 5992, 5993
 6005, 6013, 6017, 6021, 6025, 6026, 6029, 6033, 6237, 6246, 6247, 6249
*Surface, type=ELEMENT, name=_PickedSurf34, internal
__PickedSurf34_S2, S2
__PickedSurf34_S3, S3
__PickedSurf34_S1, S1
*Elset, elset=__PickedSurf39_S4, internal, instance=Part-1-1
  167,  295,  317,  343,  368,  369,  392,  416,  441,  467,  514,  539,  565,  613,  637,  638
  662,  663,  711,  736,  761,  810, 1116, 1200, 1265, 1317, 2295, 2296, 2297, 2298, 2299, 2303
 2304, 2305, 2306, 2307, 2308, 2309, 2311, 2312, 2315, 2316, 2319, 2322, 2325, 2328, 2329, 2332
 2333, 2398
*Elset, elset=__PickedSurf39_S2, internal, instance=Part-1-1
  168,  218,  220,  294,  391,  490,  588,  589,  612,  687,  762,  785, 1091, 1140, 1161, 1182
 1218, 1233, 1251, 1280, 1293, 1305, 1329, 1340, 1356, 1363, 1369, 1374, 1379, 1382, 2379, 2380
 2445, 2447, 2449, 2450, 2451, 2452, 2453, 2454, 2455, 2456, 2457, 2458, 2459, 2463, 2486, 5927
*Elset, elset=__PickedSurf39_S1, internal, instance=Part-1-1
 1349, 2460
*Surface, type=ELEMENT, name=_PickedSurf39, internal
__PickedSurf39_S4, S4
__PickedSurf39_S2, S2
__PickedSurf39_S1, S1
** Constraint: wall
*Coupling, constraint name=wall, ref node=_PickedSet23, surface=_PickedSurf39
*Kinematic
1, 1
*End Assembly
*Amplitude, name=Amp-1, definition=PERIODIC
1,          690.38,              0.,              0.
             0.,              1.
** 
** MATERIALS
** 
*Material, name=Soil
*Damping, structural=0.1
*Density
2000.,
*Elastic
 1e+09, 0.4375
** 
** BOUNDARY CONDITIONS
** 
** Name: base Type: Displacement/Rotation
*Boundary
_PickedSet45, 1, 1
_PickedSet45, 2, 2
_PickedSet45, 6, 6
** Name: far-field Type: Displacement/Rotation
*Boundary
_PickedSet44, 2, 2
** Name: ref point Type: Displacement/Rotation
*Boundary
_PickedSet27, 1, 1
_PickedSet27, 2, 2
_PickedSet27, 6, 6
** ----------------------------------------------------------------
** 
** STEP: Step-4
** 
*Step, name=Step-4, nlgeom=NO, perturbation
*Frequency, eigensolver=Lanczos, sim, acoustic coupling=projection, normalization=mass
, 0., 350., , , 
** 
** OUTPUT REQUESTS
** 
*Restart, write, frequency=0
*Output, field
*Node Output
*End Step
** ----------------------------------------------------------------
** 
** STEP: Step-5
** 
*Step, name=Step-5, nlgeom=NO, perturbation
*Steady State Dynamics, frequency scale=LINEAR, interval=RANGE
0., 350., 500, 1.
** 
** LOADS
** 
** Name: Load-2   Type: Gravity
*Dload, real
, GRAV, 0.73, -1., 0.
** 
** OUTPUT REQUESTS
** 
*Output, field, frequency=0
** 
** HISTORY OUTPUT: ref point freq
** 
*Output, history
*Node Output, nset="ref point"
RF1, RF2, RF3, RM1, RM2, RM3
** 
** HISTORY OUTPUT: v_top
** 
*Node Output, nset=v_top
U1, U2, U3
*End Step
